data_TiS2
_symmetry_space_group_name_H-M          'P 1'
_cell_length_a 6.4650999999999996
_cell_length_b 5.5979599999999996
_cell_length_c 20.0
_cell_angle_alpha 90.0
_cell_angle_beta 90.0
_cell_angle_gamma 90.0
_chemical_name_systematic               'Generated by pymatgen'
_symmetry_Int_Tables_number             1
_chemical_formula_structural            Li2MnSiO4
_chemical_formula_sum                   'Li4 Mn2 Si2 O8'
_cell_volume                            175.842145987
_cell_formula_units_Z                   2

loop_
  _symmetry_equiv_pos_site_id
  _symmetry_equiv_pos_as_xyz
   1  'x, y, z'
 
loop_
  _atom_site_type_symbol
  _atom_site_fract_x
  _atom_site_fract_y
  _atom_site_fract_z
Ti 0.0000 0.0000 0.1566
Mo 1.0000 1.0000 0.0000
Mo 0.5000 1.0000 0.0000
Mo 0.2500 0.5000 0.0000
Mo 0.7500 0.5000 0.0000
S 0.2500 0.8333 0.9213
S 0.7500 0.8333 0.9213
S 0.2500 0.8333 0.0787
S 0.7500 0.8333 0.0787
S 0.5000 0.3333 0.0787
S 1.0000 0.3333 0.0787
S 0.5000 0.3333 0.9213
S 1.0000 0.3333 0.9213
