#======================================================================

# CRYSTAL DATA

#----------------------------------------------------------------------

data_VESTA_phase_1


_chemical_name_common                  'XCrySDen XSF file'
_cell_length_a                         3.23255
_cell_length_b                         5.59796
_cell_length_c                         20.00000
_cell_angle_alpha                      90
_cell_angle_beta                       90
_cell_angle_gamma                      90
_space_group_name_H-M_alt              'P 1'
_space_group_IT_number                 1

loop_
_space_group_symop_operation_xyz
   'x, y, z'

loop_
   _atom_site_label
   _atom_site_occupancy
   _atom_site_fract_x
   _atom_site_fract_y
   _atom_site_fract_z
   _atom_site_adp_type
   _atom_site_B_iso_or_equiv
   _atom_site_type_symbol
   S1         1.0     0.499993      0.833341      0.921292     Biso  1.000000 S
   S2         1.0     0.499993      0.833341      0.078708     Biso  1.000000 S
   S3         1.0     0.999993      0.333340      0.078708     Biso  1.000000 S
   S4         1.0     0.999993      0.333340      0.921292     Biso  1.000000 S
   Mo1        1.0    -0.000007     -0.000008      0.000000     Biso  1.000000 Mo
   Mo2        1.0     0.499993      0.499984      0.000000     Biso  1.000000 Mo
